gem5 Simulator System.  http://gem5.org
gem5 is copyrighted software; use the --copyright option for details.

gem5 compiled Dec  6 2017 11:14:56
gem5 started Dec  7 2017 00:53:46
gem5 executing on mitx, pid 585
command line: /home/khalique/Approxilyzer/gem5/build/X86/gem5.opt --debug-flags=ExecEnable,ExecUser,ExecTicks,ExecEffAddr,ExecMacro --debug-file=dead.tar.gz /home/khalique/Approxilyzer/gem5/configs/example/fs_fi.py --fi=237976787261000,edx,31,0 --golden-file=/home/khalique/Approxilyzer/gem5/m5out/lu_dump.txt --disk-image=/dist/m5/system/disks/x86root-parsec.img -r 2

info: Standard input is not a terminal, disabling listeners.
Global frequency set at 1000000000000 ticks per second
warn: DRAM device capacity (8192 Mbytes) does not match the address range assigned (512 Mbytes)
info: kernel located at: /dist/m5/system/binaries/x86_64-vmlinux-2.6.22.9
warn: Sockets disabled, not accepting terminal connections
warn: Sockets disabled, not accepting gdb connections
warn: Reading current count from inactive timer.
**** REAL SIMULATION ****
info: Entering event queue @ 237975661105500.  Starting simulation...
warn: Tried to clear PCI interrupt 14
